15
Coordinates from ORCA-job job E -383.583112094450
  H          -1.17101847397826      0.60505475810101      2.69609408527257
  H           2.23642876651325     -0.36642760927633     -0.79397940394408
  H           1.06499963955354     -1.60285465829947     -1.27328330702121
  H           0.55045331517287      1.86762629641232      0.97364081363442
  H          -0.68692022558971     -1.94515032090342      1.36445362203747
  C           1.16765233953921     -0.56397810538195     -0.94246915938277
  C          -0.16846266472240      1.11428464655850      0.63086282487364
  C          -2.43165878872893      1.40560981233875     -0.10859469166573
  C           0.59621323370201      0.43540325327402     -1.91828332764371
  C          -2.47077515004777      0.61685715244988      0.89310303469053
  C          -1.07492498964687      1.54495678082122     -0.56642607287255
  C          -0.47824480746688     -0.90142490610702      1.14973574707379
  C           0.35126818740534     -0.27167356951622      0.30100583962610
  C          -0.37423432873950      1.19679846190707     -1.69572881898765
  C          -1.17127515296591      0.37485050762166      1.62752571430918
