11
Coordinates from ORCA-job job E -380.340768679765
  H           2.04991420501452     -1.64104727861147      0.45846610183990
  C          -2.02763226739508      1.67982914999208     -2.12062918495917
  C           0.82103190532126     -0.84473454828823     -1.32384048474042
  C           0.32731133138699     -0.02582020835303      0.40632572754530
  C          -1.11679232085693      0.93772489061595     -1.56723489565495
  C          -2.94750101222323      2.41709640823046     -2.69034240026629
  C          -0.19757893184240      0.18414633453721     -0.99396017164704
  C          -0.79349009532912      0.55716245333017      2.80210114743331
  C          -0.01655900268455      0.53943861649390      1.60305554547275
  C           1.29482008365784     -1.03020676211159     -0.04535142196173
  C           0.13273480495072      1.54652154416454      2.60388213693835
