20
Coordinates from ORCA-job job E -386.792905292090
  H          -2.21998342527274      1.22519217067953      1.64392879699577
  H           2.78802759627123     -3.49270147423831      1.21986600489115
  H          -2.90729679835228      2.69537794341763      0.91275496588326
  H           1.14273314929589     -3.51781715259856      0.39341372179453
  H           2.83372373581845     -0.92363698632838      0.92425299436117
  H           1.40962793816957     -2.27314367033158     -2.69893454002035
  H          -1.15655088665324      2.55881080629274      1.19676555492491
  H           3.83924787450165     -2.70888919844391     -0.99615208740270
  H          -2.52836064962598      1.25482102313131     -2.48389461145264
  H          -3.50444488217879      2.39988056538925     -1.38920680506397
  C          -2.05593425771590      2.01016255198957      0.89799029104047
  C           1.23928801813527     -1.11954764150458     -0.78389772887298
  C           2.25267025088239     -1.56510140651399      0.27267043436364
  C           0.13560763619325     -0.27487640385371     -0.70257522788408
  C          -0.79725566920516      0.50323857140365     -0.61868388618626
  C           2.12311884713921     -3.05350931721852      0.47654969624015
  C           1.74574828378349     -1.97007858942546     -1.71298568151452
  C           2.79492201586285     -2.51942487109932     -0.77806440419282
  C          -1.87577663482099      1.40591185661205     -0.47331637238196
  C          -2.68213794222815      1.70194672264062     -1.50820641552276
