15
Coordinates from ORCA-job job E -383.588201224918
  H          -2.56452626137929     -1.28555050712865     -1.94028837900643
  H          -0.27865292547347      0.40518967523217     -2.31919756066576
  H           2.72245613028690      1.45676224536651      0.12187931604060
  H          -0.79401394895378      0.96028548341379      0.66150606529054
  H          -1.57591830966212      1.42639889808163     -1.63316992855845
  C           0.19388068820409     -2.00085126356430      1.42883509114139
  C          -1.02295452697802      0.48687061603538     -1.51952706243024
  C          -0.42185589658864      0.24704914858224     -0.08757646373692
  C           2.09005076306759     -0.10339272546774      1.72018258364059
  C          -1.27685213641929     -1.05899781623505     -0.11756804240699
  C           1.00486988988954     -0.08560768293110      0.17832967027850
  C          -0.88917913162910     -2.06767932163207      0.78682373313211
  C           1.24552721200774     -1.14784379369308      1.21493680632452
  C          -1.84192537516183     -0.77716628859015     -1.31190481314898
  C           2.22023032878968      0.56278623253041      0.45753328410553
