15
Coordinates from ORCA-job job E -383.651531258471
  H          -2.05583544846899      0.31847681943892     -2.29313922547166
  H          -1.73269949908611     -1.03776656353568      0.25139034472080
  H          -1.70954874510907      2.66652547662701     -0.69177805120116
  H           1.06913882236199      1.82049445858782      1.43713812505483
  H           3.41580968193236     -0.50344637301486      1.23383204673817
  C           0.60214983785726      0.94990107771009      0.98848578082442
  C           2.40806902293200     -1.92842708775886     -0.16320342100082
  C          -0.67352065182035      0.90481147000151      0.42775836346236
  C          -0.98170683169834     -0.42852703964518     -0.26907033784539
  C           1.17576382325869     -2.04527000783380     -0.73537724723430
  C          -1.63389641761271      0.50131525864591     -1.31111294739306
  C           2.54411060231042     -0.84377936430239      0.69474354448743
  C           1.24837619266193     -0.25087344955303      0.65726863989350
  C          -1.46696463231566      1.61966501300883     -0.55012250080153
  C           0.36585364279659     -1.06335688837629     -0.27012181423360
