15
Coordinates from ORCA-job job E -383.571005019408
  H          -0.87529182237854      0.54660787605048     -2.00763264425288
  H           1.95312365027090     -0.72688059477601      2.25315345824086
  H           0.09385138191603      1.73460864500026     -1.05573248515157
  H           1.84263832972376     -0.29661105934465     -1.22077052956869
  H           0.70539919536485      0.55353515775952      3.97957659475786
  C           0.99800162041469     -0.26635724601236      2.02216012800967
  C          -0.91406664949677      0.27851527089199      0.23953949525217
  C           0.46313029306042     -0.38516881243324      0.67375265887944
  C          -1.37443991873941      1.04596279591889      1.36506467911268
  C           0.83776260541576     -0.33854335939936     -0.81249669517803
  C          -0.92471172977987     -1.21866566207028      0.27250331027319
  C          -0.91830524998789      0.98811778132032      2.50677107930259
  C           0.20886851703621     -1.63278050702217     -0.37668832289072
  C          -0.28117495568460      0.70729211958896     -1.10157364744332
  C           0.31881043286446      0.44078049452764      2.97354852065675
