11
Coordinates from ORCA-job job E -381.004170809689
  H           1.74759259413310      1.73463047583791     -1.38208569705863
  C           1.16429046086989     -0.40665962669151     -1.13652047196566
  C          -0.06089361414708     -1.21986468931629     -1.24850494016846
  C          -1.07713866446490     -0.25490597009940     -1.51820496129873
  C           1.06775295623594      0.91922629065756     -1.58307079598438
  C           0.65737217115676     -1.09271701607970     -0.02116251481214
  C           0.00653891343100     -0.38878302142754      1.02007931447954
  C          -1.01102427418118      0.30947189003130      0.83050246176915
  C          -0.33155731032278      1.04036762563200     -1.78687541030000
  C          -1.45341825367239      0.73913641261088     -0.44516070155858
  C          -1.27244847903836      1.97196002884478     -1.15882658310211
