11
Coordinates from ORCA-job job E -380.432551245741
  H          -0.86872785638108      2.80281659951049      1.00625075679913
  C           2.61100049326193      0.49368950607556      1.14179805492117
  C           2.16774442823546     -0.51937539193090      0.39989515386568
  C          -1.60238555091481      1.12635099662917     -0.22243257138247
  C          -1.56927649663778     -0.01414209726033     -0.83953849962490
  C           0.83576157126185     -0.19888759666158      0.03510387418019
  C          -0.68354241546989      1.82322023905762      0.53661763967187
  C          -0.19869691605873     -0.75770771766895     -0.69281667788049
  C          -1.25419594908591     -1.25122824579230     -1.38984575960839
  C           0.57589916598456      1.18894849171846      0.69447623392444
  C           1.78840552580440      1.51170911632275      1.36382439513375
