11
Coordinates from ORCA-job job E -380.380232591512
  H          -0.39317958178902     -1.46079684380466      2.51220349425007
  C           0.05450222917596      1.53955031058122      0.65749745110931
  C          -0.35701463740943     -0.77360871166801      1.65430217394575
  C          -0.72582034640344     -2.27252956690328     -0.60829745604127
  C          -0.05971178328719      0.56650870617218      1.80749563448697
  C           0.20752385090489      1.91173481306679      1.98768588723802
  C          -1.44385173426896     -1.10243365880759     -2.99989509617921
  C          -0.19995262914244      1.02866036590185     -0.54138567578738
  C          -0.59092802228011     -0.24681039253383     -0.80165694875086
  C          -0.98989291080255     -1.29759589985391     -1.76741204854673
  C          -0.59428903469771     -1.20602012215075      0.31561308427533
