15
Coordinates from ORCA-job job E -383.529422869249
  H          -1.98685419258615      1.67084446994066      1.86824522103094
  H           2.01026125340808      1.30693659467290      0.57904344128250
  H           0.68894342274779      2.47639228403133      0.30642212917261
  H          -0.68337289072726     -1.31027832984907     -1.00653885056371
  H           0.46857363894352      0.88627883072047      2.54095782341897
  C           0.09444908412143     -0.71742962755614      1.02845938301164
  C           0.93599603251924      1.41497741273258      0.39894067838195
  C          -1.37653474998400      1.00547625662633      1.27064272901768
  C           0.81084461631171      0.57392669174431     -2.08756936074210
  C           0.51329510273602      0.62174448543366     -0.82611583812818
  C           0.81479968646984     -2.95028227547487      2.14840573233529
  C          -0.52175154452489     -0.45783543425500     -0.35412987584059
  C           0.10981585862123      0.71899190677142      1.52562385872395
  C           0.42583052974123     -1.86048372125590      1.60665357367868
  C          -1.69252404779781      0.31138535571734      0.17752695522037
