15
Coordinates from ORCA-job job E -383.724061576520
  H           4.41316997552856     -1.21958592475062      1.85532061862262
  H           0.12266876296405     -1.49911749413994      0.84527125078588
  H          -2.94792175258118      1.59868405379905     -2.10713463788079
  H          -3.15154774501354     -0.79366232224317     -0.55567028464253
  H           0.50941763909689      2.75668624181186     -1.90499074846501
  C          -0.87157091330021     -0.04303834981480     -0.41363157240344
  C           1.44094312712868      0.11584518899758      0.13345248490122
  C           3.55738559505721     -0.83365648419264      1.35673778960035
  C          -0.77377846091801      1.14925156873257     -1.18784260016935
  C           2.59217409503154     -0.37948394860919      0.78999982161311
  C          -2.24704759316142      1.02023876347655     -1.51901705712797
  C           1.45992421770779      1.25602485174443     -0.62623020419508
  C           0.17304781780495     -0.59241488598161      0.25073662617982
  C          -2.34202741166359     -0.11197580292778     -0.78446469601518
  C           0.39471734631828      1.84623974409772     -1.32506419080367
