20
Coordinates from ORCA-job job E -386.615416367026
  H          -0.50604865912953      0.94499293350551     -1.21436430422235
  H           2.60387272804697     -4.39372927979706     -0.79304921059859
  H          -0.31351635155066      3.10631688236056      0.13245526252471
  H           1.76445798219651     -3.92013445497075     -2.38062635642002
  H          -1.85102880986432      0.44835728597069     -0.18488885335453
  H          -0.31263724749426     -1.73381890354107      0.54228793511396
  H          -2.83337433151289      2.15952039770255      1.66216223230564
  H           0.99013198964579      1.04777889680698      0.86094610659669
  H          -0.37381817753232      0.41613425152989      1.81482585200949
  H           2.28856787216277     -0.46381867498593     -0.55460990125204
  C           1.81646162147297     -2.46563969094719     -0.88991591763676
  C          -1.20435588730820      2.47966652322242      0.10709613052944
  C           0.42089158498509     -0.94657899510908      0.37836118079062
  C          -2.40901145990807      3.18898851979987     -0.64559030875174
  C          -2.86125464788349      3.98447479114444      0.33430635900489
  C          -2.28450101212958      2.85996738817628      1.02465071037492
  C           1.55432034935608     -1.25291584589686     -0.37836670881862
  C          -0.91975352235607      1.02436517788905     -0.20234005046421
  C           2.07121993162541     -3.63755677694593     -1.37226567363180
  C           0.09577574704220      0.41479406313533      0.82441402388250
