15
Coordinates from ORCA-job job E -383.672436423369
  H           2.16245180138707     -2.54662322246348     -1.37631331810981
  H          -2.77931167109475      0.92056466755507      1.25511124283738
  H          -0.81194037532230     -0.35186247114118      2.03517856025018
  H           1.13376264589058      0.65047222303653      0.58340490129553
  H           0.82456700513467     -0.94807292073526     -3.09019230870613
  C          -0.83867340125701      0.07349794415856      1.03420271186741
  C           0.84416259093993     -0.83030159592588     -2.01159683438932
  C          -1.90912341816022      0.78382081990570      0.61981288758064
  C          -1.82694783045929      1.31416821020670     -0.71043163172579
  C          -1.90369751784196      1.94812166163052     -1.96877949022439
  C           0.40620136323811     -0.09395106757891      0.19694420402349
  C           0.19213836764713      0.14326991977326     -1.31334265197961
  C          -0.86244160475281      1.01683495376194     -1.61814086426389
  C           1.18011081523688     -1.36908889975338      0.16937556106457
  C           1.51461612941396     -1.72941542243017     -1.08246556952025
