11
Coordinates from ORCA-job job E -380.962510985738
  H           0.42386606456138     -2.98014020894650      0.97530403074985
  C          -0.73517601637136      0.58036174571589     -1.32462213629198
  C           0.43200153272465     -1.03182027040092     -0.28091741200470
  C           1.63010203933133      1.16385279750199      0.75463274653886
  C           0.49527429962810      0.21397472173856      0.58780455234794
  C          -0.04262553224299     -0.83796550396088      1.58047650931484
  C           0.76375622864095      2.22100187463631     -0.01949283193691
  C           1.97754636014999      2.47179067852849      0.64633265020281
  C           0.40610463143059     -1.90993000228257      0.82504125764201
  C          -0.38433418404294     -0.66880104967372     -1.41530146736629
  C          -0.24452652380971      1.30478141714334     -0.23520779919642
