11
Coordinates from ORCA-job job E -381.030547667670
  H           1.80650370487993     -1.28723422658310      0.43314306405342
  C          -1.29399664922468      0.47576656387949      2.04537626326278
  C          -1.45532860007369     -0.42195730738791      0.94877202785224
  C           0.91699003104380     -0.77119109948215      0.77650660570022
  C          -1.24823081953980      0.63030174012118     -1.01713187458272
  C           0.85820655045739      0.77679359496160      0.85914161007300
  C          -0.29070236933486     -1.32779197664516      0.91262308401139
  C          -0.22740763963159      1.09188782964600      1.71302243936111
  C          -1.97248786637865     -0.12641104600003     -0.30489553148363
  C          -0.16816808523334      1.31442915828654     -1.48263753323691
  C           0.51120464303550      1.22223696920354     -0.37577565501090
