15
Coordinates from ORCA-job job E -383.754777405510
  H           2.00397787134219      1.28392200007052      0.79433655532871
  H           1.14450747696633     -2.74568485762863      2.20664875436676
  H           1.67834634185433      3.18890845308157     -0.78943446471436
  H          -1.22489579930866      0.85005136235590     -2.96665109033723
  H          -2.26965649118471     -3.23114365988831     -1.76236433813811
  C           0.21570054851667      2.07517593310600     -1.92672424791097
  C           0.97771769976014     -1.95201550410166      1.51933376323027
  C           0.58528489100610      0.00361206219316     -0.18505524597077
  C          -0.52046858137603      0.94528802196927     -2.14678827607485
  C          -0.33910939430991     -0.13336210184438     -1.25492749845639
  C           1.12232825569748      2.26471170870684     -0.91226246607176
  C           0.79183637869132     -1.05906585933403      0.72968234697981
  C          -1.07489039184412     -1.32833685290908     -1.43761421864788
  C          -1.70947445211975     -2.34009266513173     -1.61066812917484
  C           1.30209312004326      1.20033081522291     -0.02985941404430
