15
Coordinates from ORCA-job job E -383.618466654168
  H           1.77391936231210     -0.87514670967325      2.47821052585237
  H           3.27184426005302     -0.18067845308343      0.49314458959605
  H           1.35951356211601     -0.93633642059337     -2.39508894029867
  H          -0.53953278335317     -2.25612330888415     -1.49747146602536
  H          -1.83509959701353     -0.85103204720656      0.29605322953985
  C          -0.53181052859893      1.01084156743592      1.73584375533700
  C           0.63344476046362      1.58279555248746     -0.37080245697527
  C          -0.06580781719588     -0.35308046739269      1.31770867642322
  C          -0.12927983152391     -1.42120478235746     -0.93037635134387
  C           0.01537510209176      1.70627310935022      0.80019236289248
  C           2.18721650389336     -0.11030276220344      0.51950063877952
  C           1.35811766112117      0.44264231637873     -0.59603939240922
  C          -0.75286330891208     -0.98256813288986      0.31950092437858
  C           1.39841306153903     -0.51407591237956      1.52311549492104
  C           0.86626819300741     -0.67177754898855     -1.46124919066773
