15
Coordinates from ORCA-job job E -383.681345810131
  H           1.06884779253808      1.30813021807046      0.60258389376400
  H          -0.90678177804128     -0.12629037132958     -2.86860421292150
  H          -0.27438695448189     -1.94293053180309      2.65910972130921
  H          -2.05936304081293     -0.06624422910567      2.79192829029970
  H           0.97829087593921     -2.24152075871658     -0.91078054261322
  C          -0.70653282124722      0.38290825081914     -1.93339055040964
  C           0.76174393451466     -1.27816268015407     -0.46445814570760
  C          -1.78841342430167      1.42604624692403     -0.04001867581665
  C           0.53651062466969     -0.84318625313171      0.83901077150588
  C           0.24578499462939     -0.03176623709135     -1.00264867052465
  C          -1.08517229026817      0.84830338155093      0.97542823804749
  C          -1.59955124919488      1.27511071085341     -1.29423557925693
  C          -1.23924627305189     -0.07042930201169      2.08242556429223
  C          -0.28338446037012     -1.06762832500239      2.02050798704331
  C           0.28229756947904      0.57483128012817      0.39667281098837
