15
Coordinates from ORCA-job job E -383.534326596321
  H          -0.25511099844035      0.04388727136584     -2.28915293905004
  H          -2.98977269765824      2.97125762537132      0.35590534906378
  H          -1.57244214126029     -1.85124998273671      0.89628663696958
  H           1.22791233425157      0.73845162616829      1.51552013505442
  H           1.30660896930138     -2.09223740624514      1.21420964951104
  C           2.33600154186077      1.39098375756899     -1.08315899106318
  C           0.75364554552851     -1.35485558975335      0.64552221251067
  C           1.41566160460924      0.53100790111429     -0.79214277464094
  C           0.91019993633643      0.18021543502141      0.63702523967175
  C           0.17536429332953     -0.17146357583341     -1.31414904955671
  C          -0.76859533036703     -1.30735228038522      0.41678509216043
  C          -2.29624410630218      2.16921396250187      0.27076593067124
  C          -0.58308102502659      0.19555661347628      0.06390564241712
  C           0.17884293312217     -1.58309336815477     -0.71182155801856
  C          -1.50838175928490      1.26033881052031      0.18164692429940
