20
Coordinates from ORCA-job job E -386.709242159730
  H           0.04805572500374      0.90181938959003      2.30813518137782
  H          -0.03868051249172     -1.32009748148171      0.17960124328950
  H           1.88837588014579      0.92677519816468     -1.55007840006348
  H          -1.72857589897998      1.88841222086347     -2.53310686252072
  H           0.83466958133220      3.07162819449098     -1.86103675545470
  H          -0.14309755537954      2.91529233724715     -0.37833090189516
  H           0.11407568125837     -2.46270295108338      2.52653608567888
  H          -0.92505558123889     -1.16422294193281      3.14473356951919
  H          -1.52912380959344     -2.32096791490117      1.92319849650533
  H          -0.87903535659074     -3.06719010114738     -2.88238069430567
  C          -0.71227740418399     -2.06453496570000     -2.57036131498157
  C          -0.20206841782980     -0.84834227838073      1.14624971892694
  C          -0.53862098395774     -0.91915191062139     -2.21895662912158
  C           1.10753455573367      1.03200003501497      0.43834633120581
  C           0.20820475091084      2.39172136469919     -1.27596132342864
  C          -0.25585455984349      0.38578691126883     -1.80144501354220
  C           0.18486766715216      0.45240630364373      1.32130531594347
  C          -0.66098405941430     -1.73431055439588      2.24894380609732
  C          -0.82546384372850      1.58508052022916     -2.01295402691101
  C           0.94297014169537      0.98981792443225     -1.00088592631953
