11
Coordinates from ORCA-job job E -380.382139738414
  H          -0.80187008270050     -1.16325739211983      1.61696077336559
  C           1.17523644972571      0.17276465037560      1.02061050820410
  C          -0.33782312582987     -0.50386782754951      0.86346769129620
  C           0.91348846865413     -0.88481983109404      0.09967435323999
  C           0.09234069945039      1.07842392805957      1.15038819683769
  C           0.68161353698803     -1.44249543595865     -1.07475721909768
  C          -1.67649780403022      0.53122972921544     -0.80071062796412
  C           0.00184076704961     -1.75417426302856     -2.17805502271133
  C          -1.02356320493335      0.73754061016024      0.32821738061333
  C          -1.04118852423158     -0.94115659378976     -2.24053533256692
  C          -1.99790978014232     -0.07942887427048     -1.93982130121682
