15
Coordinates from ORCA-job job E -383.683742246011
  H          -1.59866264242746     -2.72510622821256      0.20027082061078
  H          -0.57848610475421      2.39426878160653     -1.64018226248396
  H           0.57592155079838     -2.18341782894249      1.24485474565041
  H           3.13339105509215      2.32195020294418      0.50723194759173
  H           3.47630589683105      0.76868960314156      1.48087321292060
  C          -1.69184536219874      0.54868423788255     -1.06578799688934
  C           0.64685271708906     -0.17413517518059      0.43708966797408
  C          -1.89660402640475     -0.69511198286544     -0.58065144384191
  C          -0.59457197283109      1.45586412053456     -1.09868148426750
  C           0.05196154318615     -1.43278089141393      0.65711213354681
  C          -3.01395471456609     -0.00005449176748     -1.10710840911736
  C           0.41004407646121      0.97978163144785     -0.29295010549490
  C           1.63126396990764      0.84005254396232      0.45092571738025
  C           2.81773836405552      1.33884863229213      0.83565162575285
  C          -1.17756975023882     -1.72769455542919      0.10453033066747
