20
Coordinates from ORCA-job job E -386.699805770047
  H          -1.21029337436841     -1.05099140920968     -2.45028990546596
  H           0.16885753334131      0.03433310739211     -2.26601333313270
  H           2.08400164872845     -0.17456071873807     -0.40036090942408
  H          -0.35683499924449      1.72807779230683      0.22549350066855
  H           1.80100277212575     -3.71966495118489     -1.19927104356540
  H           0.88123762884064      0.84489237453167      2.25100676362281
  H           2.96519214993489      0.14666832351008      1.09146414371843
  H           0.69618740104232     -0.79675012246108      1.63079790426256
  H          -3.07451685817536     -1.00519676018928     -0.14590659828303
  H           2.21792435075228      1.48798543556818      0.21508802559300
  C          -1.91876718288369      0.39781231299348      1.24367124773817
  C          -1.86265936535971      1.13886655038230      2.29003860986128
  C          -2.18241984984096     -0.44380480497860      0.10425557928871
  C          -0.39678529420408     -0.76670076036298     -1.76985117470513
  C           0.47369086673904     -1.91762378954615     -1.55933254494214
  C          -0.99274834058055     -0.25446315760154     -0.49251012169161
  C          -0.41459310749912      0.68570261311217      0.55873059886287
  C           0.81480030221632      0.25220654553356      1.33414627687243
  C           1.17644380091342     -2.87429658885358     -1.36071182571471
  C           2.08873631752194      0.43919210779549      0.50528160643595
