11
Coordinates from ORCA-job job E -380.324460177566
  H          -2.17106953311489     -0.95546635261493     -0.69606536693248
  C          -1.02084191045497      1.08998624929365     -0.46003538405138
  C          -0.14996455643907      0.18608602011075     -1.12552084730380
  C           0.35610365688268     -0.87669584744832      1.85222272570683
  C           0.82958461014576      1.80738238659226      1.02581040038355
  C          -1.25575700404897     -0.47767811634605     -0.31580071891037
  C          -0.29057858015308      1.88390657426220      0.40844206387772
  C          -0.17032345089781     -1.07521062553873      0.54719095323227
  C           1.51368302670231     -0.38888175351257      2.21902801544395
  C           0.88000750016567     -0.33215080966781     -0.20663579847259
  C           1.34452964121237      0.47114307486953      1.02572005702629
