15
Coordinates from ORCA-job job E -383.596333473553
  H          -0.93607231054406     -1.39054766796101      1.36985489580340
  H           0.11791769355370     -2.68838557979588     -0.48838694165889
  H           2.15903966577518      1.75024690316973     -2.67225694005369
  H           2.02892868762389      1.15742037319767      1.20169918731153
  H          -1.42054377169518      1.62351999078901     -1.07684018608987
  C          -0.45214116132861      1.26089292974156     -0.74466718676961
  C           0.85937253552908      2.04450692138538     -0.64461354909990
  C          -0.12684330604024      0.54782551052086      0.54200587917072
  C           0.97260649047424     -0.83067957712084     -1.40344496581077
  C           1.56328503855792      1.38190048826074     -1.84609003132616
  C           0.39776336632693      0.41607643758080     -1.86074404639850
  C           0.21480842439509     -1.61035054443307     -0.41563729040082
  C           1.29682577466252      1.02442178124527      0.41046277539216
  C          -0.35441902590791     -0.90418638731956      0.58959275500961
  C           1.83434889861744      0.22257132073935     -0.91161835507920
