15
Coordinates from ORCA-job job E -383.605878429590
  H          -0.46120920257519      2.49275213678973     -0.45580296084133
  H          -1.32301557714019     -1.20872565439619     -1.93928182658275
  H           1.66198145432072      1.44997425270134      0.96492856068584
  H           0.59268305478082      1.14023242887281     -2.91018687462384
  H           0.02221265842109     -0.44568505525425      1.82426657995916
  C          -0.90338029026932      0.24513677489076     -0.20042939924223
  C           0.17748840532606     -1.43941300422444     -0.24896008927426
  C           1.70906653280384      0.45545460386918     -1.09850922708467
  C          -0.06056694727103      1.49425052527513     -0.64209116638357
  C           2.26230609761656     -0.89392779035407     -1.21302247568343
  C          -0.93347780037764     -0.95386018540203     -0.95923415662126
  C           0.16045735391509     -0.26806027082875      0.76043084798096
  C           0.79758944248984      1.13159001282548     -1.84398318586935
  C           1.09035102467917      0.85750494104470      0.24994046016460
  C           1.40591409328017     -1.76514541580941     -0.81090448658387
