11
Coordinates from ORCA-job job E -380.421595796874
  H          -0.01280959117229     -2.63482158197755     -0.75758122875597
  C           0.28704382765686      0.67056998311995     -1.76151572110001
  C          -0.59149088629560      1.30456018457952      1.32213215229347
  C           0.22775742137722     -1.56806922401828     -0.84272329435411
  C           1.04384012790498      0.59093255739916     -0.51298486983348
  C          -1.18925749547558      2.60138519552691     -0.83757086172199
  C          -1.10750297950430      2.05494972082760      0.41632747298644
  C           0.89432021918089     -0.69724285256058      0.11106169865103
  C          -0.07594586925862     -0.71603393712559     -1.89646194436871
  C          -0.56935097123476      1.75631792455937     -1.59803964366911
  C           0.44818109682122      0.52357862966950      0.76114463987244
