20
Coordinates from ORCA-job job E -386.713713430435
  H           2.19827389403180      1.63499697478953     -1.17561426093480
  H           3.35234422023946      1.73264100546626      1.03497234863516
  H          -2.17116857760431     -0.27551471657169      0.39589403585670
  H           1.97773972862373      0.91961469567323      1.80913952713455
  H           2.36377445104054      0.01729893462021     -0.50563940800466
  H           0.52060466566896     -1.28574655894827     -0.19508441430048
  H          -2.07986244950891     -0.44937508819627     -1.30590011778292
  H           1.78765663853820      2.55086074495341      1.15507656421404
  H           0.15629619250975      2.89602931151120     -0.78419511140748
  H          -2.19339170912676     -4.48826974450689     -0.03551677059891
  C          -0.17273100022918     -0.45817492311110     -0.33926423942877
  C          -2.02272728473118     -3.44324669331030     -0.13344960040207
  C          -3.02784124704114      2.19506379843782     -0.81035015082208
  C          -1.61805807041126     -0.83056291462148     -0.37990501181344
  C          -1.76144376385841      2.07307356361357     -0.75148880406009
  C          -0.41974636559358      1.97138527618139     -0.67163841519305
  C           1.86166222077446      0.97974288751568     -0.36184628320103
  C           0.36428184902954      0.78668390641179     -0.46609019156352
  C          -1.84646321321142     -2.25830634385264     -0.24556729337821
  C           2.26973044228815      1.58127244787924      0.98730375059266
