20
Coordinates from ORCA-job job E -386.677414716158
  H           1.39381672400947     -1.13916803064474     -2.30413740888962
  H           1.98470145003022     -2.79736775727688     -1.80698570306790
  H          -1.62301744957590     -1.32355060337710      0.13482193593790
  H          -0.79807661120489     -0.31575126103012     -1.06663235527535
  H          -3.58800726475359      2.23992412991827      3.06865219220472
  H           0.52974242466154     -1.14556546212383      1.61802511202835
  H           1.43758354628443      2.57894677988786      0.54818723748047
  H          -0.13234351626738      4.16510032458519      1.44971321447800
  H          -0.96250645164317     -2.39211269736619     -2.86106418157778
  H           0.32499288311052     -3.00564323919013     -0.03437309770127
  C           0.52633657191457      2.17993708336236      0.99426279108200
  C          -0.38065241969402      3.10985686761413      1.52267002124247
  C          -2.66197132120788      2.48982565552469      2.61082354775743
  C           0.06409056919938     -2.27566111158957     -0.80814624228981
  C           0.37015640219494      0.84297910308378      0.98942491961746
  C           1.13006261579735     -2.12949278327405     -1.92508643127217
  C           0.17233252741257     -0.42334663493212      0.87890632998526
  C          -1.59281901283245      2.77201748746114      2.10610079755248
  C          -0.63944778306536     -1.05169557701655     -0.27291424513899
  C          -0.18746540287577     -2.69170344144751     -2.16615105724682
