11
Coordinates from ORCA-job job E -380.342730747128
  H           1.84560007138318      0.72666338186030     -2.22243319822072
  C          -0.03402500685700      2.51379675573238      0.18487763909436
  C           0.58940988578233     -0.92058264139143     -1.22266038694127
  C           0.33161503242395     -1.22542265966231      1.10732531949947
  C          -0.66100952364121     -0.22819022125687      0.79543476271851
  C           1.70703986050454     -1.07996711619989      0.86643284523595
  C           0.63095450923641      1.40915205816636     -0.43598871605330
  C          -0.35992560537662     -1.17208976112548     -0.20607036800473
  C           1.81289424505841     -0.85255853935264     -0.52130816732172
  C           1.31588421657578      0.40748240767073     -1.30852470226419
  C          -0.31565148508979      1.15179903555884      0.52561617225763
