11
Coordinates from ORCA-job job E -380.428669079284
  H          -2.36193008966388      0.22602158791002      1.99476656681260
  C           1.47430666317166      1.25570879994114     -1.01294904556366
  C          -1.94664628161411      1.26519508553157      0.04144789151324
  C           2.03542347832551      0.54489412598380     -0.07643182690631
  C           1.80658780741936     -0.48490769678045      0.75665537117992
  C          -0.97469031364795     -0.69471628211518      0.47179320154051
  C          -1.94376639953151      0.22205315853942      0.98014898638554
  C           0.07927661484162      0.96505208964926     -1.11557452461049
  C           0.52653418313943     -0.94182966495590      0.41976191646824
  C          -1.17518728954131      1.60541733073655     -0.92895718988193
  C          -0.19469317289881     -0.39371673444024     -0.65073804693766
