15
Coordinates from ORCA-job job E -383.630687016279
  H          -1.60494275706271     -1.26651700229058     -1.47692698511143
  H           2.57900261776418     -0.34817437597260     -1.26365570217190
  H           0.66020962082758     -1.17605277950822     -2.53487128438789
  H           2.93399658329428      0.05148659516917      2.45606776043870
  H          -0.51823948557492      1.25328692677782     -0.08441316198041
  C          -1.14076632853714      0.35253853233785     -0.11816357811443
  C           0.46750033048066     -0.68276918776266     -1.58253353795624
  C           0.69379281733600     -0.23150374406193      1.77047811349449
  C           2.06286626750042     -0.09000077148020      1.83168422397919
  C          -0.62023089982897     -0.13618959214144      2.10036889622784
  C           1.53606630316418     -0.22535517739537      0.57887111010638
  C          -1.99149178912372     -0.27806497546277      2.38653811925707
  C          -0.84788608750475     -0.56184461965841     -1.13833304322488
  C          -1.72835386614359      0.04178672411224      1.09061840088398
  C           1.59555337340850     -0.35713825266289     -0.79850423144047
