11
Coordinates from ORCA-job job E -380.432186218560
  H          -1.51669955812865      1.84896718583171      0.16291656309675
  C          -0.75778615382183     -0.18480222416656     -2.01299484986554
  C           0.41884196668801     -1.57025489752263     -1.71526473220061
  C           0.38052833100728      0.64087595886591      2.78023971056436
  C           1.01484133152389     -1.11148407114141      0.84618613181043
  C          -0.48828861122190      0.10735772150922     -0.67986129117942
  C          -0.22511919590229      0.85209024467250      1.58008413803422
  C           0.50705465940471     -1.06043258343382     -0.41962536227242
  C          -0.28266334261340     -1.19008790702349     -2.81848046246345
  C          -0.81274206527260      1.02278346183014      0.34719102690504
  C           0.79039483833678     -0.32866908942157      1.86770342757063
