20
Coordinates from ORCA-job job E -386.756435504638
  H           0.84478609098628      2.26723675432384      1.51605262798239
  H          -0.56552007820172      2.50966369613609      0.45466361011545
  H           1.85182155374160     -1.88462953685927      2.79555779285661
  H          -0.74406884278241      1.63125759672277      1.98873939282543
  H           2.03474783155837     -2.18659180044209     -2.83031453107776
  H          -3.68795819312265     -0.74648293311060      2.41313854030141
  H          -0.81577701680587     -1.06910129130250     -0.66631456978701
  H           2.12288460760055      1.21927075478081     -0.34568972421129
  H           0.74113427018945      1.55894343400433     -1.39070450094298
  H          -1.46505235793338      0.55305124565704     -0.91917786989665
  C          -0.07652467053760      1.81082343032418      1.14293881099158
  C           0.23248377079995      0.48880103056880      0.42220978731060
  C           1.53405937946237     -0.36858851447781     -1.57148793563281
  C          -2.09451081893708     -0.38024471986276      0.84261410283126
  C          -2.94314826073876     -0.57398442637662      1.67450180153252
  C          -1.07213664732280     -0.13321519500989     -0.15560475935827
  C           1.20345824486852      0.78756359947907     -0.75953340508299
  C           0.86278507839815     -0.44612976468675      1.34961622896713
  C           1.39244021482476     -1.20503447864067      2.11922182563771
  C           1.79473375425688     -1.33323977206898     -2.24319547101595
