11
Coordinates from ORCA-job job E -380.293908278085
  H           2.05419013563029     -0.20844235180788      0.69378276909061
  C          -0.18796068409777     -0.48015512519653      1.27400849203151
  C           1.05010525972057     -0.61515196137430      0.52667033976021
  C          -1.16330707404252     -0.91061442251108      0.23780044838543
  C          -0.53764529097367      1.70932004423717      0.20069949189218
  C          -1.86121551069813      1.47996593722750      0.75530986430224
  C           0.09443863128600     -0.51209865325169     -0.48773573594093
  C          -1.74118393477722      0.36999897098051     -0.22617934214325
  C          -0.54924654321013      0.97344659181502      1.59073442987606
  C          -1.74565611109940      1.48786553677731      2.24170526277200
  C          -0.54904487773803      0.76328573310395     -0.99958932002605
