15
Coordinates from ORCA-job job E -383.535110879904
  H          -1.16930411182419     -3.35249050248131      1.46297468252279
  H           1.98261978304552     -0.33931248137717     -0.59426010540920
  H           0.13301464635370     -0.48753570007076      1.85548622994639
  H          -1.48762918669582     -1.86543839431126     -1.96046380551128
  H          -1.43757008745836      1.45279763274222      0.80786096834084
  C           0.27819633616577      1.05689275796649     -0.69544865386147
  C           0.04213973744384     -0.38824608280219      0.76939378223665
  C          -1.53341994628036     -1.28122580647513     -1.04672309885213
  C          -0.53684117029500     -1.60965962248952      0.05799185912294
  C          -2.33124178672484     -1.95281504925360      0.10064631340091
  C          -1.30167354969473     -2.64727191593001      0.65672579911478
  C          -0.90077658639864      0.73130148960475      0.19870732785035
  C          -1.47450589902391      0.19723237264066     -1.12434449230225
  C           1.17692855446319      0.19944956553476     -0.10483214563365
  C          -0.55584933307615      0.88897683670211     -1.88005626096568
