15
Coordinates from ORCA-job job E -383.666720654372
  H           1.84584165140411      3.49801180886619      2.25974056293786
  H           1.86621130755010     -1.32972456609875     -1.22238242554841
  H           0.68297511211396     -1.27943305576932     -2.56276171137331
  H          -0.17306060574117      0.89106188289985     -1.79507952219131
  H          -0.45521158430559     -2.60109681936700     -0.21447714546399
  C          -0.18610592511490     -1.59414788482268     -0.51548941397775
  C          -0.49677970383120     -0.38160047339507     -0.00633459918788
  C           0.42084396268424      0.36959484116602     -1.03691624894994
  C           1.24129804612057      2.70950721937340      1.82814630342246
  C          -0.96450352197291      0.23921463081083      1.15340696332329
  C           1.50783154059125      2.06944842910784      0.58581376487038
  C           1.28803352127144      1.28464455810276     -0.32599479243415
  C          -0.62463917844993      1.19729931207915      1.87418400631445
  C           0.11175195048819      2.19397741844030      2.37259715832771
  C           0.83625472719183     -1.07252340139351     -1.49811290006942
