15
Coordinates from ORCA-job job E -383.641006920591
  H           1.40305929577733     -2.63092359336193     -1.01405613843325
  H          -1.49012417602647      1.50934280606416      1.40398915901238
  H           0.96539010307048      1.14699069059290      1.86866373893737
  H           1.38818897385079      2.66096406901733     -1.41326009740258
  H           1.88164587259565      1.23701251290869     -2.38890055036749
  C          -1.10815283941718      1.07806668101258     -0.78136255292694
  C          -0.22305006481609      1.27382881867584     -1.82810328796306
  C           1.23898008765445      1.59056264820282     -1.58175724641273
  C          -0.25757380210233     -1.26941409776392     -1.51208214905064
  C           0.99128315999248     -1.62875671211354     -0.99471003254490
  C           1.57063365869223     -0.54625863627360     -0.37503077754792
  C          -0.76579581930586     -0.05397525177308     -1.57667070001709
  C           1.42142843707027      0.77345693664664     -0.29984766234342
  C           0.56162884974760      1.15356094610485      0.86010615921582
  C          -0.76305813678338      1.30493108206025      0.62618373784448
