11
Coordinates from ORCA-job job E -380.395181180586
  H           0.36803539238079      1.30275945275327      1.86329742603828
  C          -0.84688768283714      1.31853734391451     -0.05201323791345
  C           2.00923115228946     -1.16534892397362      0.01688790730998
  C          -0.28394777603559      0.79714648338632      1.13834591722238
  C          -0.28454805826943      0.95984567598877     -1.30795073899014
  C          -0.40174067979833     -0.65877468926042      0.99434761449305
  C          -1.39596132534718      0.16026148257670     -0.89997488590494
  C           1.00887058558994      0.58864167405903     -1.67872128930132
  C           0.89054871444690     -1.09202901463483      0.70180418822848
  C          -1.20570025348750     -0.99039312087522     -0.16521449328851
  C           1.63631403106809     -0.25918696393451     -0.95241160789382
