12
Coordinates from ORCA-job job E -269.319261086899
  H          -0.96367613896864      1.81508687346161      0.19805522902504
  H           1.31188814582958     -2.03811466543214     -0.02509369822350
  H           0.59749529752099      0.33679608374705     -2.97955094610230
  H          -1.70605062165585      0.23926466000741      0.73509042082690
  H           0.41122184154373      1.87270888940496     -2.01654397946948
  C           0.65433475474235     -1.26707145030441     -0.41310521739970
  C          -0.53600056210852     -1.36461354945908     -1.15359996816857
  C           0.49812569013175      0.16026654879041      0.35710641052310
  C          -0.63480147966955      0.12380374746364     -1.17619246206767
  C           1.24016211949462      0.19026273343840     -0.84079988763807
  C           0.41364233149281      0.78261260662883     -2.00572089821081
  C          -0.92685047835325      0.72640702225333      0.15510909690508
