12
Coordinates from ORCA-job job E -269.391645723292
  H          -0.11292525552843     -2.33903322874016     -1.16356238487557
  H           0.53141498233945      2.00913989703289     -0.57021183724002
  H          -1.99719289459537      1.19635395922434      0.18706983952224
  H          -0.27415127718312      1.42469458181111      2.09348317646651
  H           1.98676445327117      0.52709494503723      1.30146263759467
  C           0.18487217809715     -1.44075036022255     -0.64047327526289
  C          -1.12589866112003      0.54619628372269      0.24569857617499
  C          -0.49653802356027     -0.11314251125883     -0.92872590968715
  C           1.05596677535779     -1.29449422691962      0.34881203139881
  C           1.10301854586683      0.13058674653219      0.80704177531282
  C           0.37635986394063      0.97514891836435     -0.27921868506614
  C          -0.18414318688581      0.69562329541635      1.29056675566174
