12
Coordinates from ORCA-job job E -269.399603403464
  H           1.51350023165132     -0.47541453827338      0.53741699658400
  H          -1.41531748863282     -1.96689427971116     -1.65169784738832
  H          -1.71981898076897     -0.32475002933306     -2.24397327672315
  H          -0.82551035049677      0.29443714459157      1.74932912189299
  H           0.96224373799507     -1.33808128618835     -1.86972590824322
  C          -1.22919286166418     -0.90483897699630     -1.45633626070453
  C          -1.65885789588469     -0.49737393580201     -0.09145380511100
  C          -0.71563156734550     -0.09246387771357      0.74482378990917
  C           0.74591480234539      0.73725797866255     -1.28950715099899
  C           1.18126245160295      1.72734192025685     -0.61464150412309
  C           0.59288371418505     -0.18612878129836      0.04361671064011
  C           0.29175890701317     -0.63260413819476     -1.38314356573395
