12
Coordinates from ORCA-job job E -269.352648647510
  H           1.50686118688379      1.42861203275771     -0.31458565327553
  H          -1.41631320225793      1.46286092745300      1.17935826657456
  H          -1.09460504783224     -1.57880491675951     -1.57457201017088
  H          -2.00236644641594     -0.23306032743459      1.03903808440338
  H           1.87887879565338     -1.13225120418511     -1.52410530344181
  C          -1.20984202158652      0.47005052777139      0.77214261493784
  C           1.03598227425474     -0.81067635175031     -0.91511211311018
  C           1.13738367142900     -0.87460545182691      0.59394182385122
  C          -0.67347661119133      0.43777178506234     -0.65124964308410
  C           0.80888849490961      0.59960714068383     -0.31948403705581
  C          -0.42716470532262     -0.76022414443100     -1.31958671476364
  C           0.22320511147607     -0.00398981734083      1.09660908513496
