12
Coordinates from ORCA-job job E -269.413169528058
  H           1.49628753733371     -1.39251884977323      0.11944490351364
  H          -2.10120936322498     -0.60973688818747      0.49588893881230
  H           2.13144415797326      1.13399535089715     -1.18186450612490
  H           1.45577105789897     -0.28682543937082     -1.98309562772897
  H           0.10943318444651      2.17803756511898     -1.93455865410486
  C           1.29575937405270      0.41912676926824     -1.16050768131594
  C          -0.09357510158988      0.04945820957464      1.11766445936615
  C          -1.07271113830664      0.89630660972383     -0.71743262655017
  C           1.28800989890473     -0.32301223486698      0.15399651881583
  C           1.11990894597481      0.37026102087830      1.43040138859017
  C          -1.26521360038544      0.06747196573720      0.35793210322381
  C           0.02074834692224      1.25578782100015     -1.36843981649706
