12
Coordinates from ORCA-job job E -269.477736949344
  H          -2.74030887143501      0.18650212985273     -1.83605535246795
  H          -3.36821822584924      0.50571188867558      0.73281753382624
  H          -0.12595814078389      0.00887733094741     -2.10806980483093
  H           0.73889617616502     -0.62109627392233      0.39655483187996
  H          -0.81664213198417      1.68973692513749      2.94382343993509
  C          -2.02627028748533      0.17325852610684     -1.01951173987322
  C          -0.56549452769197      1.20406645376950      2.01372921242138
  C          -0.03476947777437      0.11454559311541      0.17921093470089
  C          -0.65936531932105      0.11219618914901     -1.17140492526512
  C          -1.19300761072729      0.22903055693484      1.12936248999667
  C           0.20992743721800      1.45173330396464      0.94048473054149
  C          -2.37650722033071      0.29357987626889      0.35170514913548
