12
Coordinates from ORCA-job job E -269.505169659225
  H           1.14042744955391      1.60632280329663      1.50150795635480
  H           1.43300651578188     -2.43578873066597      1.07060342611136
  H           0.07934268896110     -2.25084626615700      2.28989801133427
  H          -0.34599249376617      2.51021105458785     -0.29979112208576
  H          -1.76116810232010      1.02149730838453     -1.65520341909622
  C          -0.31523230816185     -1.26042644869397      0.32751845294284
  C           0.51677848463548      0.94225682939932      0.91006770377999
  C           0.46586967008478     -0.41950204513697      1.06695615943618
  C           0.54810085258756     -1.87403971795879      1.37812155847492
  C          -1.12993472985047      0.59537880779464     -0.88066892586655
  C          -0.32235886489817      1.44083486566661     -0.10687113814659
  C          -1.11206466260796     -0.77786906051688     -0.64715316323925
