12
Coordinates from ORCA-job job E -269.367115745982
  H           0.67459199421440      1.82303847427869      1.35750899269419
  H           0.33403946896819     -1.43038781453794     -1.59360798525866
  H           0.86012813355093     -0.86136383366634      2.07015329891062
  H          -2.14289172059785      1.50566547415758      0.64018478691204
  H           0.23150689402411      0.27868361749251     -2.14152948380047
  C          -1.30085584389841      0.83907885505325      0.50675720758787
  C          -1.15043814399858     -0.62407605854913      0.78382248627966
  C           0.12916099299688     -0.40031639683138     -1.29394221417675
  C           0.16572701556808      1.01362182823760      0.84369635983060
  C          -1.19864937076862     -0.28659204404898     -0.55885969339417
  C           0.89722398608967      0.00913073412424     -0.07719761347268
  C           0.31830439385119     -0.49871623571008      1.20467225788776
