12
Coordinates from ORCA-job job E -269.420392962991
  H          -2.21706116368470     -0.18840722631379      0.48994629342917
  H           2.54055920993429     -2.47323235003008     -1.06526056515298
  H          -0.34063975372310      1.25061237700384      1.87543998162928
  H          -0.37832299697207      3.05956519454800     -2.14899334288002
  H           0.48417152516165     -0.37515250128903      2.13014426598143
  C          -0.25734464545957      2.19772519401272     -1.53834324839936
  C          -0.17297954207646      0.23641780314219      1.51519177907014
  C          -1.18076970313610     -0.41286596546461      0.70011461227920
  C           0.04077606536751      0.05610435616969     -0.01984090753665
  C           1.01270274800873     -0.92344738431403     -0.43004184022540
  C          -0.09329169112414      1.22530254086989     -0.84567748475378
  C           1.82641244770396     -1.74511473833479     -0.76531714344102
