12
Coordinates from ORCA-job job E -269.324884019850
  H           0.38664966890105     -1.53066538798788      0.82424244741611
  H          -1.20342130777641     -0.36747358273104     -1.66622645607398
  H          -1.03058901558393      1.26956166427699     -2.37132413707935
  H          -0.32946159815489     -1.17198030232340      2.48655621276411
  H           1.60577353658679      0.70748569593770     -1.76983788858767
  C          -0.00780727884703     -0.78767188308858      1.52294136278671
  C          -1.00240793749178      1.23718197426019     -0.11749881700831
  C           0.53362215949810      0.67847544068656      1.58573430548229
  C           0.45260555417725      1.08781674348779      0.17665773396174
  C          -0.74888601557829      0.61968062193789     -1.53821560615568
  C          -0.74283502601448      0.40414524658730      1.01445529026460
  C           0.70960636028363      0.59351036895647     -1.16926974777055
