12
Coordinates from ORCA-job job E -269.394976043624
  H           1.78078624742531     -1.45461008414378     -1.33625669683056
  H           1.00293168721791     -0.85315246256390      1.12944868453564
  H           0.51448482095535      1.63055409979567     -0.56951797383257
  H           0.66979787342903      1.61027015496516      1.21282382631716
  H          -2.12737712014597      1.44351448190716      0.18092534036638
  C          -0.40278833670178     -1.63874280284820     -1.51724135127747
  C          -1.58268903386637     -1.25804529161762     -0.90883336400354
  C          -1.07378077182928     -0.52988302890865      0.20792808115593
  C           0.21746129403460      1.10911962915253      0.35011756051364
  C           0.77918512909157     -1.20266379285144     -0.99854048900147
  C          -1.26111749518844      0.81686399468171      0.37109821310327
  C           0.45749750557806     -0.45996669756864      0.26446056895359
