12
Coordinates from ORCA-job job E -269.483546588745
  H          -1.17125483839041     -0.82746667466770      1.87751400876711
  H          -0.74285820085626      2.21379093424541     -0.84168070238081
  H          -1.14673864242898     -1.69497771618969      0.35203393014782
  H           1.67388208549902      1.23498451196744     -0.23581122141479
  H          -2.59706780764763      0.56285726614926      0.04797581952738
  C          -1.52647803433989      0.42945583538189      0.14812763599217
  C           0.72402234444598      0.77247426473036      0.00297823783853
  C          -0.56102867623749      1.28496449012916     -0.31357636274061
  C          -0.88503727614185     -0.73617965641621      0.82045108008531
  C           0.59482462532192     -0.44724070847187      0.68421730158074
  C           1.60358620982741     -1.24539163948123      1.13876132215106
  C           2.51716737110002     -1.88813479854282      1.74868288629258
