12
Coordinates from ORCA-job job E -269.392438326771
  H           2.26755714811285     -2.48001242507603     -2.04245086912787
  H          -0.49152305936132      1.15706226103583     -1.59517446683744
  H           0.55105394646035     -0.56702521251621      2.27828475049079
  H          -0.45965680987787     -1.54444805660083      1.19488084646128
  H           1.35012085937135      0.79429451864218      0.46525114404836
  C          -1.55389724830649      0.87561142911037      0.33762321703178
  C           1.79605459758770     -1.74954395236339     -1.42985456369817
  C           1.28584257312762     -0.90769330666769     -0.73397806974358
  C          -1.26522506916047      0.42080051722375      1.54665628628020
  C          -0.54486300279124      0.78933042006736     -0.57640747272944
  C          -0.10974947575302     -0.52652012487340      1.40827209797423
  C           0.61244064059053      0.05820053201807      0.10645529984987
