12
Coordinates from ORCA-job job E -269.348473211890
  H          -1.56999461461192     -0.54975511199868     -1.64268027164158
  H           0.35332646982776     -1.84293963198951     -0.77958875585592
  H          -2.37592390403852     -0.82124175631133     -0.06278160557132
  H           1.30887739307579      0.50099189420150     -0.78278563503336
  H          -0.19887680667650     -1.59148781173068      0.90334672107905
  C          -1.45545499447331     -0.49707476830005     -0.55286935338437
  C          -0.10839350929293     -1.13886487252061     -0.08510790375568
  C          -1.34377456324440      1.73257920905261      0.85614533647998
  C           0.59477312456130      0.24858753471847      0.00360414079816
  C           1.01221954800202      0.78442470119032      1.37866064942047
  C          -0.90044726813531      0.84946455463122     -0.14642703837548
  C          -0.12426977499399      1.46082695905675      1.36541351584003
