12
Coordinates from ORCA-job job E -269.516874383223
  H          -1.95290673085752      0.12695183553738     -2.76322978322517
  H           0.93806386186385     -1.33367610104193      1.56607000716831
  H          -0.11598340297101     -2.60233589582914     -0.03872137591435
  H          -1.35769078503397     -2.07825368352634     -1.90364352650718
  H           1.04013110688400      1.09603280479299      1.75806913781326
  C           0.42517068354265     -0.74722456495205      0.80305418502929
  C          -1.35583232108726      0.02221988222680     -1.86650130449995
  C           0.50495965719447      0.62510847964485      0.94357356890284
  C          -0.22906972536329     -1.53294894108415     -0.19319975059892
  C          -1.00001705719059     -1.20922856650247     -1.35046425780546
  C          -0.18742837582321      1.30586281715750     -0.08614937511014
  C          -0.85035391115812      1.09022853357658     -1.08764342525252
