12
Coordinates from ORCA-job job E -269.360315345354
  H          -2.17241296685408      2.38792676225071     -0.51222239359652
  H           2.01210061611581     -1.14692300249221     -0.85060554006715
  H           1.89929220601899      0.68991815340670     -0.93426309585019
  H           0.89997107716975     -1.17494102599364      1.39545274200222
  H          -2.15234306802714      1.15773171384847     -1.91512105733303
  C          -0.02548904404087     -0.42580641177149     -0.66619648825262
  C           1.43394518582961     -0.24936869124974     -0.64061410075268
  C          -0.80118599028712      0.78843940628882     -0.37191066170495
  C           0.68203210975903     -0.38357063441632      0.68865537598626
  C          -0.49288992542280      1.66926738972372      1.93469445830438
  C          -1.75637559773052      1.49541956972435     -0.96273427507298
  C          -0.09612210253066      0.84539187068064      1.00814753633726
