12
Coordinates from ORCA-job job E -269.435339636142
  H           2.18486201344456      2.48365135370950      1.06077945169383
  H           0.98946834103411      2.09088163639741     -0.30898404863272
  H          -2.10060780847826     -1.35481561559077     -1.61947814637404
  H          -1.71120908613465     -3.05845393309549      0.51534235501224
  H           1.61433810353826      0.37155816349380      2.17743671748209
  C           1.45678056458760      1.80643087755475      0.62917039422318
  C           1.13791346963931      0.64278151650911      1.23778463052895
  C          -1.43762338495865     -1.22635668576472     -0.77578197382444
  C          -0.60041986797158     -0.16909661207438     -0.53435295919054
  C          -0.26625125891890     -1.48910239679803      1.16615918260443
  C          -1.23376141939161     -2.10433610322209      0.32926122214269
  C           0.19443883360982     -0.28133580111909      0.72145067433433
