12
Coordinates from ORCA-job job E -269.417986242980
  H          -0.76457787656149     -0.66031609591370      1.23337423324611
  H          -1.22924554013191      0.72285779576161     -2.84715699803127
  H          -2.01862181474961      0.36739934002533      0.34984623668804
  H           1.03674230432045      1.05601397273050      0.61924685943443
  H           2.05056666728733     -3.02680084390336     -1.46973828650809
  C          -0.27763067707620      1.82090469231600     -1.12632581933290
  C           1.39296106377994     -2.21044580826954     -1.29324093129184
  C           0.64299572013903     -1.28409998052925     -1.09908737012658
  C          -0.68803928170231      0.82642492837155     -1.91727166895797
  C          -0.24019224696584     -0.20158951806717     -0.87979798978515
  C           0.10901115127660      0.99861193918703      0.06358743842524
  C          -0.98601866961597      0.03763547829100      0.42778649624001
