12
Coordinates from ORCA-job job E -269.360722481034
  H          -2.02010549825577      1.43990126541114      1.78189339582183
  H          -0.79760529346712     -1.17851497827771      0.86314333819065
  H          -0.43153329048828     -0.85210725783568     -1.56597953219994
  H          -0.96751574152673      0.85142509062268     -1.47249108726456
  H           3.05674244768856      1.15285278266864     -1.56787129452056
  C           1.08641826787084      0.47862839189277     -0.74981108886316
  C          -0.36248975706496      0.07692049605672     -0.99479762133344
  C          -0.73467333563907     -0.15521242503170      0.49390667226880
  C           1.10973463525987      0.21192736946876      0.74328815248863
  C          -1.15466887370749      0.95545689430700      1.37444424598861
  C           0.15951497086265      0.92785109770101      1.37076539130765
  C           2.01455236846749      0.88080677301637     -1.57336967188450
