16
Coordinates from ORCA-job job E -272.030796258433
  H          -0.43521687052409      0.67056422573578      1.78985718409317
  H          -2.27887838811853      1.26323356046710      0.13382366249668
  H          -0.16988380486510     -1.72692720765044      1.26498722187537
  H           2.60408315047352      1.36811844697876     -0.90926405451379
  H          -1.43277979996191      2.68622767998121     -1.66694029978066
  H           1.83415120311795     -0.07984462090420      0.90582782021000
  H          -0.71281874585065     -1.43843009234349     -0.40249494303854
  H          -1.83224033344172     -1.18459946137281      0.95416505857133
  H           0.99529231646128      2.74803434910351     -2.21586066686451
  C          -0.32675158907426      0.38942189931707      0.72372074096401
  C          -0.79071548684646     -1.08574528300928      0.63038177867502
  C           1.11936848611942      0.51950222950810      0.34639386498349
  C           1.54492934085007      1.32591315727703     -0.66718051291001
  C          -0.74048444434082      2.07209586434241     -1.09619565993560
  C           0.63722339567500      2.11362409493692     -1.41243114560463
  C          -1.21499322967370      1.28167965763232     -0.09183134922134
