12
Coordinates from ORCA-job job E -344.314631302510
  H          -1.70754918579688     -1.13527722274657      1.10729929054977
  H           2.04225207306392     -0.79728625990948     -2.69748742615910
  H           0.76112222897187     -0.12636168962862     -3.69105642239657
  C          -0.97189018260617      0.85782390956895      0.55863747397351
  C           1.09688498794898     -0.24362366118373     -2.65417174255338
  C          -0.99277403314537      2.19279374710431      1.03034433018860
  C           1.25523664286556      1.08246609748079     -1.99579702669514
  C          -0.13707605724955      1.81850286667849     -0.01666105412285
  C          -0.60207259879993     -0.97158832856713     -0.79215369224307
  C          -1.21235429664317     -0.50995066937476      0.37207403966521
  C           0.72769505766787      1.68689731453038     -1.05797186004473
  C           0.09623076372282     -0.91659200395263     -1.80387241016222
