12
Coordinates from ORCA-job job E -344.276066697831
  H           1.00222659681553     -3.22656125513548      1.67876913676462
  H           1.08637704162214      1.98817400023797     -0.00316546714019
  H          -1.95514469615464      1.37631222066219     -1.57938612482123
  C           0.78662251245635     -2.22772880779306      1.32769810802267
  C           1.61222130412833     -1.27337131193244      0.85038721780741
  C          -1.59572218324179      2.09867107703083      0.60468460115756
  C          -1.65764453234714      1.56777479449632     -0.56326769222681
  C           0.78400106096923      0.98577448226510      0.28654785999057
  C           1.57517710463301     -0.06387616550449      0.46307685301965
  C          -0.47665359416628     -1.55627358384492      1.28724154547853
  C          -1.01074183386334     -0.48504312723029      0.99636595156906
  C          -0.74202558085138      0.82250987674827      0.47958711037814
