12
Coordinates from ORCA-job job E -344.199932036767
  H           1.29834086589351     -1.74702434382543      1.93318086305108
  H           1.75414200452726      1.00811459757536      1.87678108231382
  H           2.01109036396861     -0.11549841600383     -0.41857670618879
  C          -0.87794429166966      0.77276670568846     -0.88325670554604
  C           1.08020147411565     -0.25736292427198      0.12147261188755
  C          -1.29339509478086      1.20280212965935      0.33874805438728
  C          -0.54801175656721      1.09359184156604      1.59009208549510
  C          -1.38898900854106      0.04179681199958      1.27527391676854
  C          -0.68540371832428     -1.06715317340888      0.78414072038242
  C          -0.30011084671122     -0.49992461018374     -0.49707333015609
  C           0.74301326781035     -1.00022096094380      1.37708188390325
  C           0.87143294027891      0.52715734214887      1.46967802370188
