12
Coordinates from ORCA-job job E -344.257721800489
  H           2.55701404037890     -0.05803673639299     -0.96491961278373
  H          -0.31553271910886     -1.19477379168962      4.71829011367105
  H          -1.20396228795047      2.00336359002195     -1.35058323025221
  C           1.50713732809356     -0.11174605208781     -0.73196540427322
  C           0.07029435688338     -1.26524555651512     -1.12839658668224
  C          -0.82479520511994      0.99380387702361      0.58032574684211
  C          -0.74364468956594      1.24794687479779     -0.73546993301430
  C          -0.28872915417607     -0.86333676645532      3.70824502776428
  C           0.22065527697272      0.18657250723852     -1.23951319482067
  C           0.58082431968148     -0.73637929904752      0.13753940304167
  C          -0.26626676411083     -0.47319854061387      2.55784945331555
  C          -0.22625480197793     -0.06259630627962      1.24372971719171
