12
Coordinates from ORCA-job job E -344.269047364538
  H          -0.73836496037522      0.44759879314221     -1.43055863142323
  H           1.55810455285091      1.81481035706888      0.02245024107240
  H           1.90339474241686      0.07035525167613     -2.61140916017846
  C          -0.77382702694073     -0.74911189909004      1.62150243384589
  C          -0.41555163004890     -1.69757182238757      0.82978337519323
  C           0.22078856632353      0.23596700136273     -0.95104642930136
  C          -0.14807898635350      1.16400969704827      1.15378782158383
  C           1.24976319476430     -0.36928614083464     -1.86930441591910
  C           1.12298637807158     -1.61081980796780     -1.33945316966282
  C          -0.94383409640952      0.51413769773476      1.95465930249154
  C           0.18636530487465     -1.30933555411388     -0.30885529631766
  C           0.63027496082602      1.25713072636095      0.08404102861577
