14
Coordinates from ORCA-job job E -345.472335496617
  H           0.50492632815770     -0.46826500464279     -2.31654480211983
  H           1.55687823035587      2.11096858430134      0.41511771453393
  H          -0.21529915613257     -1.54425794830049      1.15919766362870
  H           1.30836409683522     -0.76644122913467      1.80021471578757
  H          -0.51975972086720     -1.48168249756010     -1.31705549121836
  C           0.44916894356534     -0.67788649188368      1.13450006417959
  C           0.64972731167197     -0.00805901611128     -0.21501107635997
  C          -0.13638622738653      0.68686772796856      1.06163876727371
  C          -0.81072691537743      1.74775697002372      0.33299529649259
  C          -1.58769186574794      1.47727614488011     -0.82102828583419
  C           0.72660307272345      1.44669614864528      0.20655268575315
  C          -2.40497666842670      1.25860046377532     -1.97827581032614
  C          -0.14940060489670     -0.45568722225933     -1.43533105876863
  C          -1.28481232447447      0.46967457029800     -1.66312248302211
