14
Coordinates from ORCA-job job E -345.492234501351
  H           1.29378652948743      0.84670846720188     -1.34589992973680
  H           2.27830868325519     -0.70909675816673      0.80911766564915
  H           0.48782224184740     -2.52925883405471      1.39556746227513
  H          -1.31579500811456      1.39938588057528      1.97759094756600
  H           0.09639552756892      2.12494237851260     -0.92509200162272
  C          -0.81264334214933      0.13421506700192     -1.10479653684493
  C          -0.93978175035540     -0.30625998530473     -2.32381444410067
  C           0.31567183987642     -1.46676832560471      1.29008071572910
  C          -0.81282704629368      0.71896294574040      1.29886919593628
  C          -1.45469020764086     -0.06981545361716      0.19288825096079
  C           0.59073560579122      0.79983926462549      0.74310003793212
  C           0.42261468949994      1.09823730865725     -0.73759580462900
  C          -0.98631047616479     -0.77310646296822      1.22968002514494
  C           1.23482941339210     -0.50534049259857      1.02311311574061
