14
Coordinates from ORCA-job job E -345.512900513045
  H           2.11438839564169      0.67672855747766     -0.84004861223424
  H          -1.50622179340629     -2.50770049432089      1.08180190998348
  H          -0.33801852558464      0.59658591700096      1.04910559397262
  H           1.28361740201001     -1.77444482405735     -0.16219505089592
  H           1.31587593024212      0.14418630549832      1.51896980378245
  C          -0.79574839730386      0.66800419747016     -1.97168100076385
  C           1.17997062676189      1.05664844905296     -0.41107878697090
  C           0.75889122838923      2.41211771568991     -0.78314339341408
  C          -1.19530865487796     -0.51216041287418     -1.81459869556130
  C           0.60334725065779      0.17284517422566      0.68094454209561
  C          -0.89130901081702     -2.01752990765226      0.34211354696896
  C           0.36873496806529     -1.24508709487056      0.11771741659087
  C           0.04156267580350      1.59519601563155     -1.50388155153378
  C          -0.84258399558174     -1.38293399827196     -0.79647292201991
