14
Coordinates from ORCA-job job E -345.507817398917
  H           0.00502593469260     -2.11349892158122      0.73708108093985
  H          -2.57768796024509     -0.44767498517536     -0.93238208607568
  H          -1.67432291645825     -0.28949846468024     -2.47716688624283
  H           2.23257661732280     -0.41241615911750      0.93267096277957
  H           1.01862038919216     -0.16431956690007      2.18672757339369
  C           0.11904210467157      0.90753088256134     -0.68186832615813
  C          -1.65763871800282     -0.09425879203685     -1.40151881611090
  C          -0.35881226815594     -0.46160461601223     -0.66143356302210
  C           0.20706077699207     -1.10642991717152      0.38264552819047
  C          -1.24139984665500      1.36610143697496     -1.02012824593168
  C          -0.38906053154447      1.85943623341704      0.80897960109209
  C          -1.47716325755751      2.19892471644471      0.08038777308793
  C           1.18299054363623     -0.14299952595706      1.10548798106985
  C           0.80750003211166      1.24013627923400      0.54902672298786
