14
Coordinates from ORCA-job job E -345.489974379899
  H          -2.06035087813681      0.80266303495784      2.08116316665396
  H          -0.22062008139567      1.58435657091036     -2.59712351980864
  H           2.44720781235871     -0.37907233599829      0.14133112170672
  H          -3.08958143428951      1.09665988112135      0.54963736914718
  H           0.24559003465035     -0.07191417004255     -3.03845442590699
  C           1.58428666286889      0.86604647032438     -1.57597782001969
  C           2.29971565407474      2.13539345421761     -1.48776185521676
  C           0.19520482069623      0.64657857443186     -2.21404691944788
  C          -1.15247909593741      0.36194375212015      0.24496836798211
  C           1.91827149754720      1.72288029940255     -0.26955672335269
  C           1.62393095792443      0.26062856591446     -0.16188605968391
  C          -2.15651270075480      0.78232610681501      1.00221354234731
  C          -0.53955899688525      0.10519087238028     -1.02701129000431
  C           0.20150464727890     -0.12302767655501      0.06904894560358
