14
Coordinates from ORCA-job job E -345.491968921225
  H          -1.81426831585751     -0.70206044357808     -0.75084040915972
  H          -1.86312739674491      0.90320975310948     -0.03172039030445
  H          -0.18914741381287      0.64507344544169     -1.99265060585060
  H           2.01366623026351     -0.49351494916427     -1.55728460466958
  H          -1.54319427515446     -0.32778832911880      2.08659365399013
  C           1.04528793751612      1.19592001596422     -0.32495647711699
  C           1.34300928274283     -0.33814773072226     -0.71806014482027
  C          -1.23915708247788      0.00951566090442     -0.13839706903347
  C           0.19225610932582     -1.34357904688156      1.27539635646722
  C           2.21436132087042      1.43457499734553      0.13397668642312
  C           1.25052451578251     -1.27523578880026      0.37378352578027
  C           0.01119728273818      0.40253584973997     -0.94783136069496
  C           1.26284642965770     -2.32188055288569      1.25553852843487
  C          -0.93196252484946     -0.57805238135439      1.22669241055443
