14
Coordinates from ORCA-job job E -345.506956479636
  H           2.74952944942719     -3.57280779364747      0.00543175641381
  H           0.99417871996515     -1.04428220283671     -1.66012133052134
  H          -1.61692442235983     -2.19477766877053     -0.27602389709623
  H          -1.92695348359953      0.72110458690580     -0.73320038427778
  H           2.53365657270279     -2.87480827494926      1.72444184195426
  C          -1.14830601238664      0.07840605643510     -0.34439898127510
  C           0.27022695076901     -1.13558666478576      0.55789190651107
  C           0.49723157788348     -1.66661187808782     -0.92028636248954
  C          -0.04570505155526      0.33218088860844      0.52958737791324
  C           2.22086478781221     -2.91726721382910      0.68759157092417
  C           0.93553885044711      2.46472867591003      1.69552367382460
  C          -0.87957992668179     -1.40925655118512     -0.41446388448535
  C           0.45508827470859      1.42786499244917      1.13751890492480
  C           1.19690131286752     -2.19140655221675      0.26749170767939
