14
Coordinates from ORCA-job job E -345.445354599976
  H           2.17468337493874     -1.27405863354692      0.44134804069938
  H          -0.62944384886360      2.14076613889194     -2.37748690822018
  H           0.33042133072092      0.75491662172462      1.44241945547328
  H          -1.45991355709126      2.42664959075321     -0.76530287807856
  H          -1.13951480404911     -1.63157684352834      1.38401985510535
  C          -1.75655872792561     -0.57502550340540     -0.44479455392626
  C           1.99510029733811      0.61847577853491     -2.30654479074259
  C          -0.97956505127817     -0.87263488820254      0.62712271775353
  C          -0.93537601825157      1.72691363126920     -1.41764740075211
  C          -1.24491910978880      0.29429716229394     -1.35771070161194
  C           0.21285070580843      0.07925228912466      0.58390899642901
  C           1.48538288120034      0.15218927451084     -1.17426239401093
  C           0.06571733295527      0.73916506226533     -0.82995188893616
  C           1.49234459428631     -0.53333728068546      0.04830665081819
