14
Coordinates from ORCA-job job E -345.502512229430
  H           2.38329776845203     -2.84695181154705      2.71028033489255
  H          -0.07467235915407      2.73618837746301     -0.57752489612747
  H           1.09560688229842     -0.88953145936916     -2.73164513010330
  H          -1.71773020593720      0.63971577641245     -1.39021981908049
  H          -1.56260299897112      0.59078198632838      0.41749210622585
  C          -1.03438414743601      0.61137006356416     -0.53835454721580
  C           0.07890145858706     -0.46314744260217     -0.66720285391147
  C           1.50161795931563     -1.21296200374830      1.40216330820516
  C           0.93569216288765     -0.24011690156830      0.57756822480214
  C           0.72602372807191     -0.18950596239163     -1.99950108274506
  C           0.97663816792665      1.09522222373765      0.53172985235878
  C           0.11865533469368      1.66447470458505     -0.61001880063148
  C           0.78715640831494      1.13004952699607     -1.89908605640918
  C           1.96730934095041     -2.08559517786017      2.09601465973978
