14
Coordinates from ORCA-job job E -345.577764773578
  H           1.17184868748359     -0.29558753309955      3.04549696405252
  H           3.30419718399968     -0.48785605404800     -0.68945861300154
  H          -1.03319305496520      1.47390985066956     -1.28809437054953
  H          -2.71394059250823      1.09789153733117     -0.63297388886968
  H          -2.17668306985893     -1.33715900635288     -0.47897530810608
  C          -1.65640823314595      0.84060638040668     -0.65990762730099
  C           1.16356994709953     -0.98570881015700     -0.88779560599771
  C           1.05113922400137     -0.11167307416087      1.98013385574350
  C           2.16206981409228     -0.28989567816350      1.09838643983139
  C          -0.04476666901255     -1.11843323140358     -1.02057273270692
  C          -1.33801574536458     -0.65438768729999     -0.58137746474671
  C           2.34580645267925     -0.60943502399910     -0.19225278822584
  C          -1.04840603851968      0.30751521868261      0.56661124587338
  C          -0.11436050598058      0.25471401159446      1.44101929400419
